Version 4
SHEET 1 1892 680
WIRE 208 160 208 128
WIRE 128 176 128 144
WIRE 304 256 304 192
WIRE 128 272 128 240
WIRE 208 304 208 256
FLAG 128 144 inn
FLAG 128 240 inp
FLAG 304 192 out
FLAG 208 128 vp
FLAG 208 256 vn
TEXT 248 80 Left 2 !.include "C:\\Users\\Ahmad Aziz\\Data\\Kuliah\\semester 5\\prak_elektronika_2\\Rangkaian LTSpice\\Percobaan 4 Osilator RC\\Opampku.ckt.txt"
