Version 4
SHEET 1 1076 708
WIRE 224 64 -624 64
WIRE 32 128 -80 128
WIRE 224 128 224 64
WIRE 224 128 112 128
WIRE 528 128 528 64
WIRE 528 256 528 208
WIRE 624 256 528 256
WIRE -624 272 -624 64
WIRE -608 272 -624 272
WIRE -512 272 -544 272
WIRE -464 272 -512 272
WIRE -368 272 -400 272
WIRE -336 272 -368 272
WIRE -224 272 -272 272
WIRE -80 272 -80 128
WIRE -80 272 -144 272
WIRE 0 272 -80 272
WIRE 528 288 528 256
WIRE 224 304 224 128
WIRE 224 304 176 304
WIRE 272 304 224 304
WIRE 624 304 624 256
WIRE -512 336 -512 272
WIRE -368 336 -368 272
WIRE 0 336 -32 336
WIRE -32 368 -32 336
WIRE 528 432 528 368
WIRE -512 480 -512 416
WIRE -368 480 -368 416
FLAG -32 368 0
FLAG 528 432 VEE
FLAG 96 368 VEE
FLAG 528 64 VCC
FLAG 624 304 0
FLAG 96 240 VCC
FLAG -512 480 0
FLAG -368 480 0
FLAG 272 304 Out
IOPIN 272 304 Out
SYMBOL res 128 112 R90
WINDOW 0 0 56 VBottom 2
WINDOW 3 32 56 VTop 2
SYMATTR InstName RF
SYMATTR Value 53k
SYMBOL res -128 256 R90
WINDOW 0 0 56 VBottom 2
WINDOW 3 32 56 VTop 2
SYMATTR InstName R6
SYMATTR Value 1k8
SYMBOL voltage 528 272 R0
WINDOW 123 0 0 Left 0
WINDOW 39 0 0 Left 0
SYMATTR InstName V2
SYMATTR Value 9
SYMBOL voltage 528 112 R0
WINDOW 123 0 0 Left 0
WINDOW 39 0 0 Left 0
SYMATTR InstName V3
SYMATTR Value 9
SYMBOL cap -272 256 R90
WINDOW 0 0 32 VBottom 2
WINDOW 3 32 32 VTop 2
SYMATTR InstName C1
SYMATTR Value 18n
SYMBOL cap -400 256 R90
WINDOW 0 0 32 VBottom 2
WINDOW 3 32 32 VTop 2
SYMATTR InstName C2
SYMATTR Value 18n
SYMBOL cap -544 256 R90
WINDOW 0 0 32 VBottom 2
WINDOW 3 32 32 VTop 2
SYMATTR InstName C3
SYMATTR Value 18n
SYMBOL res -528 320 R0
SYMATTR InstName R7
SYMATTR Value 1k8
SYMBOL res -384 320 R0
SYMATTR InstName R8
SYMATTR Value 1k8
SYMBOL Opampku 80 304 R0
SYMATTR InstName X2
TEXT -616 600 Left 2 !.tran 0 500m 300m 1u uic
TEXT -168 504 Left 2 ;Amati V(out) dan cari nilai RF yang memberikan \nosilasi yang dapat diperahankan\nEkspor nilai output dalam bentuk teks \nuntuk ketelitian pengamatan
