Version 4
SHEET 1 1476 680
WIRE 208 160 208 144
WIRE 192 176 128 176
WIRE 256 176 224 176
WIRE 208 224 208 192
FLAG 128 176 in
FLAG 256 176 out
FLAG 208 144 vp
FLAG 208 224 vn
TEXT -104 -24 Left 2 !.include "C:\\Users\\Ahmad Aziz\\Data\\Kuliah\\semester 5\\prak_elektronika_2\\Rangkaian LTSpice\\Percobaan 5 Osilator LC\\74HC04.txt"
