Version 4
SHEET 1 880 840
WIRE 48 160 0 160
WIRE 208 160 128 160
WIRE 464 208 384 208
WIRE 608 208 528 208
WIRE -128 320 -192 320
WIRE 0 320 0 160
WIRE 0 320 -48 320
WIRE 16 320 0 320
WIRE -304 336 -304 256
WIRE 208 352 208 160
WIRE 208 352 192 352
WIRE 272 352 208 352
WIRE 384 352 384 208
WIRE 384 352 352 352
WIRE 400 352 384 352
WIRE 16 384 0 384
WIRE 608 384 608 208
WIRE 608 384 576 384
WIRE 672 384 608 384
WIRE -304 448 -304 416
WIRE -304 448 -400 448
WIRE 0 448 0 384
WIRE -304 480 -304 448
WIRE 400 480 400 416
WIRE -304 640 -304 560
WIRE -192 656 -192 320
WIRE 608 656 608 384
WIRE 608 656 -192 656
FLAG -304 256 VCC
FLAG -304 640 VEE
FLAG -400 448 0
FLAG 112 288 VEE
FLAG 496 448 VEE
FLAG 112 416 VCC
FLAG 496 320 VCC
FLAG 672 384 out
FLAG 400 480 0
FLAG 0 448 0
SYMBOL voltage -304 320 R0
SYMATTR InstName V1
SYMATTR Value 9
SYMBOL voltage -304 464 R0
SYMATTR InstName V2
SYMATTR Value 9
SYMBOL Opampku 480 384 R0
SYMATTR InstName X1
SYMBOL Opampku 96 352 M180
SYMATTR InstName X2
SYMBOL res 368 336 R90
WINDOW 0 0 56 VBottom 2
WINDOW 3 32 56 VTop 2
SYMATTR InstName R1
SYMATTR Value 1k
SYMBOL res -32 304 R90
WINDOW 0 0 56 VBottom 2
WINDOW 3 32 56 VTop 2
SYMATTR InstName R2
SYMATTR Value 10k
SYMBOL res 144 144 R90
WINDOW 0 0 56 VBottom 2
WINDOW 3 32 56 VTop 2
SYMATTR InstName R3
SYMATTR Value 10k
SYMBOL cap 528 192 R90
WINDOW 0 0 32 VBottom 2
WINDOW 3 32 32 VTop 2
SYMATTR InstName C1
SYMATTR Value 1µ
TEXT -420 732 Left 2 !.tran 100m
