Version 4
SHEET 1 880 680
WIRE -320 -32 -320 -80
WIRE 400 -32 400 -80
WIRE 640 -32 640 -80
WIRE -112 -16 -176 -16
WIRE -176 32 -176 -16
WIRE -320 80 -320 48
WIRE -320 80 -400 80
WIRE 400 80 400 48
WIRE 448 80 400 80
WIRE 640 80 640 48
WIRE 640 80 576 80
WIRE -400 112 -400 80
WIRE -320 112 -320 80
WIRE 400 112 400 80
WIRE 640 112 640 80
WIRE -176 160 -176 112
WIRE 336 160 272 160
WIRE 800 160 704 160
WIRE 400 224 400 208
WIRE 528 224 400 224
WIRE 640 224 640 208
WIRE 640 224 528 224
WIRE -320 240 -320 192
WIRE 528 272 528 224
WIRE 528 400 528 352
FLAG 400 -80 VCC
FLAG 640 -80 VCC
FLAG 528 400 VEE
FLAG 272 160 vin
FLAG 448 80 vodp
FLAG 576 80 vodn
FLAG -320 -80 VCC
FLAG -320 240 VEE
FLAG -400 112 0
FLAG -176 160 0
FLAG -112 -16 vid
FLAG 144 48 0
FLAG 144 208 0
FLAG 96 144 0
FLAG 96 32 0
FLAG 96 -16 vid
FLAG 96 192 vid
FLAG 144 -32 vip
FLAG 144 128 vin
FLAG 800 160 vip
SYMBOL npn 336 112 R0
SYMATTR InstName Q1
SYMATTR Value 2N3904
SYMBOL npn 704 112 M0
SYMATTR InstName Q2
SYMATTR Value 2N3904
SYMBOL res 384 -48 R0
SYMATTR InstName R1
SYMATTR Value 5k
SYMBOL res 624 -48 R0
SYMATTR InstName R2
SYMATTR Value 5k
SYMBOL res 512 256 R0
SYMATTR InstName R3
SYMATTR Value 5k
SYMBOL voltage -320 96 R0
WINDOW 123 0 0 Left 0
WINDOW 39 0 0 Left 0
SYMATTR InstName V1
SYMATTR Value 9
SYMBOL voltage -320 -48 R0
WINDOW 123 0 0 Left 0
WINDOW 39 0 0 Left 0
SYMATTR InstName V2
SYMATTR Value 9
SYMBOL voltage -176 16 R0
WINDOW 123 0 0 Left 0
WINDOW 39 0 0 Left 0
SYMATTR InstName V3
SYMATTR Value SINE(0 150m 1k)
SYMBOL e 144 112 R0
SYMATTR InstName E1
SYMATTR Value 0.5
SYMBOL e 144 -48 R0
SYMATTR InstName E2
SYMATTR Value 0.5
TEXT 296 312 Left 2 !.tran 5m
TEXT -208 368 Left 2 ;Ekspor data dan plot vodp dan vodn vs vid\nPlot data yang diperoleh pada aplikasi lain
