Version 4
SHEET 1 880 680
WIRE -320 -32 -320 -80
WIRE 400 -32 400 -80
WIRE 640 -32 640 -80
WIRE -96 16 -160 16
WIRE -160 64 -160 16
WIRE -320 80 -320 48
WIRE -320 80 -400 80
WIRE 400 80 400 48
WIRE 448 80 400 80
WIRE 640 80 640 48
WIRE 640 80 576 80
WIRE -400 112 -400 80
WIRE -320 112 -320 80
WIRE 400 112 400 80
WIRE 640 112 640 80
WIRE 336 160 272 160
WIRE 800 160 704 160
WIRE -160 192 -160 144
WIRE -320 240 -320 192
WIRE 400 272 400 208
WIRE 432 272 400 272
WIRE 528 272 512 272
WIRE 544 272 528 272
WIRE 640 272 640 208
WIRE 640 272 624 272
WIRE 528 320 528 272
WIRE 528 448 528 400
FLAG 400 -80 VCC
FLAG 640 -80 VCC
FLAG 528 448 VEE
FLAG 448 80 vod1
FLAG 576 80 vod2
FLAG -320 -80 VCC
FLAG -320 240 VEE
FLAG -400 112 0
FLAG -160 192 0
FLAG -96 16 vid
FLAG 112 32 vid
FLAG 112 240 vid
FLAG 160 16 vip
FLAG 272 160 vip
FLAG 160 176 vin
FLAG 160 96 0
FLAG 112 80 0
FLAG 112 192 0
FLAG 160 256 0
FLAG 800 160 vin
SYMBOL npn 336 112 R0
SYMATTR InstName Q1
SYMATTR Value 2N3904
SYMBOL npn 704 112 M0
SYMATTR InstName Q2
SYMATTR Value 2N3904
SYMBOL res 384 -48 R0
SYMATTR InstName R1
SYMATTR Value 5k
SYMBOL res 624 -48 R0
SYMATTR InstName R2
SYMATTR Value 5k
SYMBOL res 512 304 R0
SYMATTR InstName R3
SYMATTR Value 5k
SYMBOL voltage -320 96 R0
WINDOW 123 0 0 Left 0
WINDOW 39 0 0 Left 0
SYMATTR InstName V1
SYMATTR Value 9
SYMBOL voltage -320 -48 R0
WINDOW 123 0 0 Left 0
WINDOW 39 0 0 Left 0
SYMATTR InstName V2
SYMATTR Value 9
SYMBOL voltage -160 48 R0
WINDOW 123 0 0 Left 0
WINDOW 39 0 0 Left 0
SYMATTR InstName V3
SYMATTR Value SINE(0 20m 1k)
SYMBOL res 528 256 R90
WINDOW 0 0 56 VBottom 2
WINDOW 3 32 56 VTop 2
SYMATTR InstName R4
SYMATTR Value 39
SYMBOL res 640 256 R90
WINDOW 0 0 56 VBottom 2
WINDOW 3 32 56 VTop 2
SYMATTR InstName R5
SYMATTR Value 39
SYMBOL e 160 0 R0
SYMATTR InstName E1
SYMATTR Value 0.5
SYMBOL e 160 160 R0
SYMATTR InstName E2
SYMATTR Value 0.5
TEXT 296 360 Left 2 !.tran 5m
TEXT -184 368 Left 2 ;Amati penguatan mode diferensial
