Version 4
SHEET 1 2652 1336
WIRE 1696 -160 1648 -160
WIRE 1824 -160 1776 -160
WIRE 1872 -160 1824 -160
WIRE 2000 -160 1952 -160
WIRE 560 -128 512 -128
WIRE 688 -128 640 -128
WIRE 736 -128 688 -128
WIRE 864 -128 816 -128
WIRE 2384 -128 2336 -128
WIRE 2512 -128 2464 -128
WIRE 1248 -96 1200 -96
WIRE 1376 -96 1328 -96
WIRE 1696 -16 1648 -16
WIRE 1824 -16 1824 -160
WIRE 1824 -16 1776 -16
WIRE 560 16 512 16
WIRE 688 16 688 -128
WIRE 688 16 640 16
WIRE 2000 16 2000 -160
WIRE 2080 16 2000 16
WIRE 2208 16 2144 16
WIRE 2336 16 2336 -128
WIRE 2336 16 2288 16
WIRE 16 32 16 -16
WIRE 304 48 224 48
WIRE 864 48 864 -128
WIRE 944 48 864 48
WIRE 1072 48 1008 48
WIRE 1200 48 1200 -96
WIRE 1200 48 1152 48
WIRE 2512 48 2512 -128
WIRE 2512 48 2496 48
WIRE 2560 48 2512 48
WIRE 1376 80 1376 -96
WIRE 1376 80 1360 80
WIRE 1424 80 1376 80
WIRE 1824 80 1824 48
WIRE 224 112 224 48
WIRE 688 112 688 80
WIRE 2336 112 2336 80
WIRE 1200 144 1200 112
WIRE 16 160 16 112
WIRE 96 160 16 160
WIRE 16 192 16 160
WIRE 1920 224 1872 224
WIRE 2048 224 2000 224
WIRE 224 256 224 192
WIRE 784 256 736 256
WIRE 912 256 864 256
WIRE 16 320 16 272
WIRE 2048 352 2048 224
WIRE 2096 352 2048 352
WIRE 2512 352 2512 48
WIRE 2512 352 2176 352
WIRE 912 384 912 256
WIRE 960 384 912 384
WIRE 1376 384 1376 80
WIRE 1376 384 1040 384
WIRE 1648 384 1648 -16
WIRE 1872 384 1872 224
WIRE 1872 384 1648 384
WIRE 512 416 512 16
WIRE 736 416 736 256
WIRE 736 416 512 416
WIRE 2048 448 2048 416
WIRE 912 480 912 448
WIRE 1696 608 1648 608
WIRE 1824 608 1776 608
WIRE 1872 608 1824 608
WIRE 2000 608 1952 608
WIRE 560 640 512 640
WIRE 688 640 640 640
WIRE 736 640 688 640
WIRE 864 640 816 640
WIRE 2384 640 2336 640
WIRE 2512 640 2464 640
WIRE 1248 672 1200 672
WIRE 1376 672 1328 672
WIRE 1696 752 1648 752
WIRE 1824 752 1824 608
WIRE 1824 752 1776 752
WIRE 560 784 512 784
WIRE 688 784 688 640
WIRE 688 784 640 784
WIRE 2000 784 2000 608
WIRE 2080 784 2000 784
WIRE 2208 784 2144 784
WIRE 2336 784 2336 640
WIRE 2336 784 2288 784
WIRE 864 816 864 640
WIRE 944 816 864 816
WIRE 1072 816 1008 816
WIRE 1200 816 1200 672
WIRE 1200 816 1152 816
WIRE 2512 816 2512 640
WIRE 2512 816 2496 816
WIRE 2560 816 2512 816
WIRE 1376 848 1376 672
WIRE 1376 848 1360 848
WIRE 1424 848 1376 848
WIRE 1824 848 1824 816
WIRE 688 880 688 848
WIRE 2336 880 2336 848
WIRE 1200 912 1200 880
WIRE 1920 992 1872 992
WIRE 2048 992 2000 992
WIRE 784 1024 736 1024
WIRE 912 1024 864 1024
WIRE 2048 1120 2048 992
WIRE 2096 1120 2048 1120
WIRE 2512 1120 2512 816
WIRE 2512 1120 2176 1120
WIRE 912 1152 912 1024
WIRE 960 1152 912 1152
WIRE 1376 1152 1376 848
WIRE 1376 1152 1040 1152
WIRE 1648 1152 1648 752
WIRE 1872 1152 1872 992
WIRE 1872 1152 1648 1152
WIRE 512 1184 512 784
WIRE 736 1184 736 1024
WIRE 736 1184 512 1184
WIRE 2048 1216 2048 1184
WIRE 912 1248 912 1216
FLAG 16 -16 VCC
FLAG 16 320 VEE
FLAG 96 160 0
FLAG 784 -16 VCC
FLAG 1296 16 VCC
FLAG 816 352 VCC
FLAG 816 480 VEE
FLAG 784 112 VEE
FLAG 1296 144 VEE
FLAG 688 112 0
FLAG 1200 144 0
FLAG 912 480 0
FLAG 1424 80 voNoFB
FLAG 512 -128 vi
FLAG 304 48 vi
FLAG 224 256 0
FLAG 1920 -48 VCC
FLAG 2432 -16 VCC
FLAG 1952 320 VCC
FLAG 1952 448 VEE
FLAG 1920 80 VEE
FLAG 2432 112 VEE
FLAG 1824 80 0
FLAG 2336 112 0
FLAG 2048 448 0
FLAG 2560 48 voFBA
FLAG 1648 -160 vi
FLAG 784 752 VCC
FLAG 1296 784 VCC
FLAG 816 1120 VCC
FLAG 816 1248 VEE
FLAG 784 880 VEE
FLAG 1296 912 VEE
FLAG 688 880 0
FLAG 1200 912 0
FLAG 912 1248 0
FLAG 1424 848 voFBB
FLAG 512 640 vi
FLAG 1920 720 VCC
FLAG 2432 752 VCC
FLAG 1952 1088 VCC
FLAG 1952 1216 VEE
FLAG 1920 848 VEE
FLAG 2432 880 VEE
FLAG 1824 848 0
FLAG 2336 880 0
FLAG 2048 1216 0
FLAG 2560 816 voFBC
FLAG 1648 608 vi
SYMBOL voltage 16 16 R0
SYMATTR InstName V1
SYMATTR Value 12
SYMBOL voltage 16 176 R0
SYMATTR InstName V2
SYMATTR Value 12
SYMBOL Opampku 768 48 R0
SYMATTR InstName X1
SYMBOL Opampku 1280 80 R0
SYMATTR InstName X2
SYMBOL Opampku 832 416 M0
SYMATTR InstName X3
SYMBOL res 832 -144 R90
WINDOW 0 0 56 VBottom 2
WINDOW 3 32 56 VTop 2
SYMATTR InstName R2
SYMATTR Value 3k3
SYMBOL res 1344 -112 R90
WINDOW 0 0 56 VBottom 2
WINDOW 3 32 56 VTop 2
SYMATTR InstName R4
SYMATTR Value 44k
SYMBOL res 880 240 R90
WINDOW 0 0 56 VBottom 2
WINDOW 3 32 56 VTop 2
SYMATTR InstName R6
SYMATTR Value 2k2
SYMBOL res 656 0 R90
WINDOW 0 0 56 VBottom 2
WINDOW 3 32 56 VTop 2
SYMATTR InstName RF
SYMATTR Value 1G
SYMBOL res 1168 32 R90
WINDOW 0 0 56 VBottom 2
WINDOW 3 32 56 VTop 2
SYMATTR InstName R3
SYMATTR Value 3k3
SYMBOL res 1056 368 R90
WINDOW 0 0 56 VBottom 2
WINDOW 3 32 56 VTop 2
SYMATTR InstName R5
SYMATTR Value 2k2
SYMBOL res 656 -144 R90
WINDOW 0 0 56 VBottom 2
WINDOW 3 32 56 VTop 2
SYMATTR InstName R1
SYMATTR Value 2k2
SYMBOL voltage 224 96 R0
WINDOW 3 24 152 Left 2
WINDOW 123 24 124 Left 2
WINDOW 39 0 0 Left 0
SYMATTR Value SINE(0 100m 2.2k)
SYMATTR Value2 AC 1
SYMATTR InstName V3
SYMBOL cap 1008 32 R90
WINDOW 0 0 32 VBottom 2
WINDOW 3 32 32 VTop 2
SYMATTR InstName C1
SYMATTR Value 68n
SYMBOL Opampku 1904 16 R0
SYMATTR InstName X4
SYMBOL Opampku 2416 48 R0
SYMATTR InstName X5
SYMBOL Opampku 1968 384 M0
SYMATTR InstName X6
SYMBOL res 1968 -176 R90
WINDOW 0 0 56 VBottom 2
WINDOW 3 32 56 VTop 2
SYMATTR InstName R7
SYMATTR Value 3k3
SYMBOL res 2480 -144 R90
WINDOW 0 0 56 VBottom 2
WINDOW 3 32 56 VTop 2
SYMATTR InstName R8
SYMATTR Value 44k
SYMBOL res 2016 208 R90
WINDOW 0 0 56 VBottom 2
WINDOW 3 32 56 VTop 2
SYMATTR InstName R9
SYMATTR Value 2k2
SYMBOL res 1792 -32 R90
WINDOW 0 0 56 VBottom 2
WINDOW 3 32 56 VTop 2
SYMATTR InstName RF1
SYMATTR Value 110k
SYMBOL res 2304 0 R90
WINDOW 0 0 56 VBottom 2
WINDOW 3 32 56 VTop 2
SYMATTR InstName R10
SYMATTR Value 3k3
SYMBOL res 2192 336 R90
WINDOW 0 0 56 VBottom 2
WINDOW 3 32 56 VTop 2
SYMATTR InstName R11
SYMATTR Value 2k2
SYMBOL res 1792 -176 R90
WINDOW 0 0 56 VBottom 2
WINDOW 3 32 56 VTop 2
SYMATTR InstName R12
SYMATTR Value 2k2
SYMBOL cap 2144 0 R90
WINDOW 0 0 32 VBottom 2
WINDOW 3 32 32 VTop 2
SYMATTR InstName C2
SYMATTR Value 68n
SYMBOL Opampku 768 816 R0
SYMATTR InstName X7
SYMBOL Opampku 1280 848 R0
SYMATTR InstName X8
SYMBOL Opampku 832 1184 M0
SYMATTR InstName X9
SYMBOL res 832 624 R90
WINDOW 0 0 56 VBottom 2
WINDOW 3 32 56 VTop 2
SYMATTR InstName R13
SYMATTR Value 3k3
SYMBOL res 1344 656 R90
WINDOW 0 0 56 VBottom 2
WINDOW 3 32 56 VTop 2
SYMATTR InstName R14
SYMATTR Value 44k
SYMBOL res 880 1008 R90
WINDOW 0 0 56 VBottom 2
WINDOW 3 32 56 VTop 2
SYMATTR InstName R15
SYMATTR Value 2k2
SYMBOL res 656 768 R90
WINDOW 0 0 56 VBottom 2
WINDOW 3 32 56 VTop 2
SYMATTR InstName RF2
SYMATTR Value 220k
SYMBOL res 1168 800 R90
WINDOW 0 0 56 VBottom 2
WINDOW 3 32 56 VTop 2
SYMATTR InstName R16
SYMATTR Value 3k3
SYMBOL res 1056 1136 R90
WINDOW 0 0 56 VBottom 2
WINDOW 3 32 56 VTop 2
SYMATTR InstName R17
SYMATTR Value 2k2
SYMBOL res 656 624 R90
WINDOW 0 0 56 VBottom 2
WINDOW 3 32 56 VTop 2
SYMATTR InstName R18
SYMATTR Value 2k2
SYMBOL cap 1008 800 R90
WINDOW 0 0 32 VBottom 2
WINDOW 3 32 32 VTop 2
SYMATTR InstName C3
SYMATTR Value 68n
SYMBOL Opampku 1904 784 R0
SYMATTR InstName X10
SYMBOL Opampku 2416 816 R0
SYMATTR InstName X11
SYMBOL Opampku 1968 1152 M0
SYMATTR InstName X12
SYMBOL res 1968 592 R90
WINDOW 0 0 56 VBottom 2
WINDOW 3 32 56 VTop 2
SYMATTR InstName R19
SYMATTR Value 3k3
SYMBOL res 2480 624 R90
WINDOW 0 0 56 VBottom 2
WINDOW 3 32 56 VTop 2
SYMATTR InstName R20
SYMATTR Value 44k
SYMBOL res 2016 976 R90
WINDOW 0 0 56 VBottom 2
WINDOW 3 32 56 VTop 2
SYMATTR InstName R21
SYMATTR Value 2k2
SYMBOL res 1792 736 R90
WINDOW 0 0 56 VBottom 2
WINDOW 3 32 56 VTop 2
SYMATTR InstName RF3
SYMATTR Value 440k
SYMBOL res 2304 768 R90
WINDOW 0 0 56 VBottom 2
WINDOW 3 32 56 VTop 2
SYMATTR InstName R22
SYMATTR Value 3k3
SYMBOL res 2192 1104 R90
WINDOW 0 0 56 VBottom 2
WINDOW 3 32 56 VTop 2
SYMATTR InstName R23
SYMATTR Value 2k2
SYMBOL res 1792 592 R90
WINDOW 0 0 56 VBottom 2
WINDOW 3 32 56 VTop 2
SYMATTR InstName R24
SYMATTR Value 2k2
SYMBOL cap 2144 768 R90
WINDOW 0 0 32 VBottom 2
WINDOW 3 32 32 VTop 2
SYMATTR InstName C4
SYMATTR Value 68n
TEXT 208 424 Left 2 !.ac dec 10 10 100k
TEXT 216 488 Left 2 !*.tran 20m
